*Heading
** Job name: TPB Model name: Model-1
** Generated by: Abaqus/CAE 6.14-1
*Preprint, echo=NO, model=NO, history=NO, contact=NO
**
** PARTS
**
*Part, name=ThreePB
*Node
      1, -0.409999996,           0.
      2, -0.409999996,           2.
      3,          -4.,           2.
      4,          -4.,           0.
      5, -0.100000001,           0.
      6, -0.100000001,           2.
      7,           0.,  0.400000006
      8,           0.,           2.
      9, -0.0500000007,           2.
     10,  0.100000001,           0.
     11,  0.100000001,           2.
     12, 0.0500000007,           2.
     13,  0.409999996,           0.
     14,  0.409999996,           2.
     15,           4.,           0.
     16,           4.,           2.
     17, -0.409999996, 0.0500000007
     18, -0.409999996,  0.100000001
     19, -0.409999996,  0.150000006
     20, -0.409999996,  0.200000003
** ... 30372 like lines cut
***************************************************************
*User element, nodes=4, type=U2, properties=5, coordinates=2, VARIABLES=12
1,2
*********************** RECTENGULAR ****************************
*User element, nodes=4, type=U6, properties=4, coordinates=2, VARIABLES=8
4
***************************************************************
***************************************************************
*Element, type=U2
1, 2031, 2071, 2069, 2043
2, 35, 2029, 2060, 34
3, 2029,   35,   36, 2034
4, 2250, 2249, 2292, 2295
5, 101, 2246, 2249, 100
6, 2190, 2191,   72, 73
7, 71,   72, 2191, 2192
8, 2221, 2193, 2194, 2220
9, 2220, 2194, 2195, 2231
10, 2271, 2217, 2229, 2274
11, 68,   69, 2194, 2193
12, 2238,  106,  107, 2242
13, 2218, 2275, 2274, 2229
14, 2181, 2182,   66, 67
15, 2175, 2167, 2565, 2155
16, 2208, 2171, 2207, 2256
17, 2035,   37,   38, 2036
18, 2064, 2034, 2035, 2080
19, 2036,   38,   39, 2040
20, 2040,   39,   40, 2037
** ... 30195 like lines cut
***************************************************************
*Element, type=U6
30216, 2031, 2071, 2069, 2043
30217, 35, 2029, 2060, 34
30218, 2029,   35,   36, 2034
30219, 2250, 2249, 2292, 2295
30220, 101, 2246, 2249, 100
30221, 2190, 2191,   72, 73
30222, 71,   72, 2191, 2192
30223, 2221, 2193, 2194, 2220
30224, 2220, 2194, 2195, 2231
30225, 2271, 2217, 2229, 2274
30226, 68,   69, 2194, 2193
30227, 2238,  106,  107, 2242
30228, 2218, 2275, 2274, 2229
30229, 2181, 2182,   66, 67
30230, 2175, 2167, 2565, 2155
30231, 2208, 2171, 2207, 2256
30232, 2035,   37,   38, 2036
30233, 2064, 2034, 2035, 2080
30234, 2036,   38,   39, 2040
30235, 2040,   39,   40, 2037
** ... 30195 like lines cut
***************************************************************
********************** ASSIGNING MATERIAL PROP ****************
*Elset, elset=uel_model, generate
     1,  30215,      1
***************************************************************
*Uel property, elset=uel_model
20800, 0.3, 0, 0.03, 0.5
**E, nu, at, lc, gc
***************************************************************
*Elset, elset=uel_model_PH, generate
30216, 60430, 1
***************************************************************
*Uel property, elset=uel_model_PH
20800, 0, 0.03, 0.5
**E, at, lc, gc
***************************************************************
*Element, type=CPE4
60431, 2031, 2071, 2069, 2043
60432, 35, 2029, 2060, 34
60433, 2029,   35,   36, 2034
60434, 2250, 2249, 2292, 2295
60435, 101, 2246, 2249, 100
60436, 2190, 2191,   72, 73
60437, 71,   72, 2191, 2192
60438, 2221, 2193, 2194, 2220
60439, 2220, 2194, 2195, 2231
60440, 2271, 2217, 2229, 2274
60441, 68,   69, 2194, 2193
60442, 2238,  106,  107, 2242
60443, 2218, 2275, 2274, 2229
60444, 2181, 2182,   66, 67
60445, 2175, 2167, 2565, 2155
60446, 2208, 2171, 2207, 2256
60447, 2035,   37,   38, 2036
60448, 2064, 2034, 2035, 2080
60449, 2036,   38,   39, 2040
60450, 2040,   39,   40, 2037
** ... 30195 like lines cut
***************************************************************
*Elset, elset=umatelem, generate
60431, 90645, 1
***************************************************************
*Solid Section, elset=umatelem, material=Material-uel
1.0
*End Part
**  
**
** ASSEMBLY
**
*Assembly, name=Assembly
**  
*Instance, name=ThreePB-1, part=ThreePB
*End Instance
**  
*Node
      1, 0.0250000004,   2.20000005,           0.
*Nset, nset=BTM_L, instance=ThreePB-1
 4,
*Nset, nset=BTM_R, instance=ThreePB-1
 15,
*Nset, nset=RP
 1,
*Nset, nset=TOP, instance=ThreePB-1
    8,    9,   12, 1323, 1324, 1325, 1326, 1327, 1328, 1329, 1330, 1331, 1830, 1831, 1832, 1833
 1834, 1835, 1836, 1837, 1838
*Elset, elset=TOP, instance=ThreePB-1
  4503,  4504,  4738,  5279,  5447,  5449,  5505,  6461,  7295,  7297, 15578, 15579, 15603, 15619, 15624, 15625
 15647, 15734, 16134, 17930
** Constraint: Constraint-1
*Equation
2
TOP, 2, 1.
RP, 2, -1.
**
*Elset, elset=umatelem, instance=ThreePB-1, generate
60431, 90645, 1
**
*End Assembly
***************************************************************
** 
** MATERIALS
** 
*Material, name=Material-elastic
*Elastic
20800., 0.3
*Material, name=Material-uel
*Depvar
      5,
*User Material, constants=1
0.,
** ----------------------------------------------------------------
** 
** STEP: Step-1
** 
*Step, name=Step-1, nlgeom=NO, inc=1000
*Static
0.01, 1., 1e-09, 0.01
** 
** BOUNDARY CONDITIONS
** 
** Name: Load Type: Displacement/Rotation
*Boundary
RP, 1, 1
RP, 2, 2, -0.08
** Name: fix_bottom Type: Displacement/Rotation
*Boundary
BTM_L, 1, 1
BTM_L, 2, 2
** Name: fix_r Type: Displacement/Rotation
*Boundary
BTM_R, 2, 2
** 
** OUTPUT REQUESTS
** 
*Restart, write, frequency=0
** 
** FIELD OUTPUT: F-Output-1
** 
*Output, field
*Node Output
RF, U, UR
*Element Output, directions=YES
SDV, 
** 
** HISTORY OUTPUT: H-Output-1
** 
*element output, elset=umatelem
SDV
**
*End Step
